goiania_leste_dss/TR3/CTMT_5002411.dss
! ==============================================================================
! ALIMENTADOR CTMT_5002411 - GOIANIA LESTE-3
! Subestacao: Trafo TR3 (GOL-S-TRF-TR3) | Barra MT: 4630 -> PAC_INI: 84799265002411
! ==============================================================================

! 1. Disjuntor de Saida MT do Alimentador
new line.DJ_5002411 phases=3 bus1=4630 bus2=84799265002411 switch=y r1=1e-4 x1=1e-4 length=0.001 units=km

! 2. Linhas de Media Tensao (MT)
new line.52888816 phases=3 bus1=80541725002411.1.2.3 bus2=80547755002411.1.2.3 r1=0.188 x1=0.26 length=0.023959 units=km normamps=525.0
new line.52888920 phases=3 bus1=80541705002411.1.2.3 bus2=80541715002411.1.2.3 r1=0.188 x1=0.26 length=0.031314 units=km normamps=525.0
new line.52888921 phases=3 bus1=80541715002411.1.2.3 bus2=80541725002411.1.2.3 r1=0.188 x1=0.26 length=0.034053 units=km normamps=525.0
new line.52888922 phases=3 bus1=80541705002411.1.2.3 bus2=80541735002411.1.2.3 r1=0.195 x1=0.4 length=0.009955 units=km normamps=419.0
new line.52888963 phases=3 bus1=80444025002411.1.2.3 bus2=80444045002411.1.2.3 r1=0.188 x1=0.26 length=0.028282 units=km normamps=525.0
new line.52888964 phases=3 bus1=80444045002411.1.2.3 bus2=80444035002411.1.2.3 r1=0.188 x1=0.26 length=0.012934 units=km normamps=525.0
new line.52888966 phases=3 bus1=80444055002411.1.2.3 bus2=80444085002411.1.2.3 r1=0.188 x1=0.26 length=0.016863 units=km normamps=525.0
new line.52888967 phases=3 bus1=80444085002411.1.2.3 bus2=80444145002411.1.2.3 r1=0.188 x1=0.26 length=0.017594 units=km normamps=525.0
new line.52888968 phases=3 bus1=80444145002411.1.2.3 bus2=80444155002411.1.2.3 r1=0.188 x1=0.26 length=0.008697 units=km normamps=525.0
new line.52888969 phases=3 bus1=80444155002411.1.2.3 bus2=80444165002411.1.2.3 r1=0.188 x1=0.26 length=0.009636 units=km normamps=525.0
new line.52888970 phases=3 bus1=80444165002411.1.2.3 bus2=80444695002411.1.2.3 r1=0.188 x1=0.26 length=0.010276 units=km normamps=525.0
new line.52888994 phases=3 bus1=80547755002411.1.2.3 bus2=80443975002411.1.2.3 r1=0.188 x1=0.26 length=0.028512 units=km normamps=525.0
new line.52888995 phases=3 bus1=80443975002411.1.2.3 bus2=80443985002411.1.2.3 r1=0.188 x1=0.26 length=0.038938 units=km normamps=525.0
new line.52888996 phases=3 bus1=80443985002411.1.2.3 bus2=80443995002411.1.2.3 r1=0.188 x1=0.26 length=0.038581 units=km normamps=525.0
new line.52888997 phases=3 bus1=80443995002411.1.2.3 bus2=80444005002411.1.2.3 r1=0.188 x1=0.26 length=0.033627 units=km normamps=525.0
new line.52888998 phases=3 bus1=80444005002411.1.2.3 bus2=80444025002411.1.2.3 r1=0.188 x1=0.26 length=0.029513 units=km normamps=525.0
new line.52889198 phases=3 bus1=80444035002411.1.2.3 bus2=80444055002411.1.2.3 r1=0.188 x1=0.26 length=0.010257 units=km normamps=525.0
new line.53950882 phases=3 bus1=80550225002411.1.2.3 bus2=80439915002411.1.2.3 r1=0.188 x1=0.26 length=0.028482 units=km normamps=525.0
new line.53950883 phases=3 bus1=80439915002411.1.2.3 bus2=80444695002411.1.2.3 r1=0.188 x1=0.26 length=0.01751 units=km normamps=525.0
new line.53950884 phases=3 bus1=80550225002411.1.2.3 bus2=84799265002411.1.2.3 r1=0.188 x1=0.26 length=0.001874 units=km normamps=525.0
new line.55347128 phases=3 bus1=95745135002411.1.2.3 bus2=80541735002411B.1.2.3 r1=0.195 x1=0.4 length=0.009 units=km normamps=419.0
new line.55347132 phases=3 bus1=95745155002411.1.2.3 bus2=95745135002411.1.2.3 r1=0.195 x1=0.4 length=0.009902 units=km normamps=419.0
new line.55347142 phases=3 bus1=95744615002411.1.2.3 bus2=95745135002411.1.2.3 r1=0.236 x1=0.27 length=0.010136 units=km normamps=456.0
new line.88888839499 phases=3 bus1=I888888308035002411.1.2.3 bus2=I888888312915002411.1.2.3 r1=1.551 x1=0.47 length=0.001 units=km normamps=125.0
new line.88888839438 phases=3 bus1=I888888312905002411B.1.2.3 bus2=INT114725002411.1.2.3 r1=1.551 x1=0.47 length=0.001 units=km normamps=125.0
new line.88888839437 phases=3 bus1=I888888103085002411B.1.2.3 bus2=I888888312905002411.1.2.3 r1=1.551 x1=0.47 length=0.001 units=km normamps=125.0
new line.88888838653 phases=3 bus1=I888888308035002411.1.2.3 bus2=84799265002411.1.2.3 r1=1.551 x1=0.47 length=0.001 units=km normamps=125.0
new line.88888863605 phases=3 bus1=I888888477675002411.1.2.3 bus2=I888888103085002411.1.2.3 r1=1.551 x1=0.47 length=0.001 units=km normamps=125.0
new line.88888863606 phases=3 bus1=I888888312915002411.1.2.3 bus2=I888888477665002411.1.2.3 r1=1.551 x1=0.47 length=0.001 units=km normamps=125.0
new line.88888864443 phases=3 bus1=95745155002411.1.2.3 bus2=I888888483045002411.1.2.3 r1=1.551 x1=0.47 length=0.001 units=km normamps=125.0
new line.88888863607 phases=3 bus1=I888888308035002411.1.2.3 bus2=I888888477675002411B.1.2.3 r1=1.551 x1=0.47 length=0.001 units=km normamps=125.0
new line.88888864444 phases=3 bus1=I888888483045002411.1.2.3 bus2=I888888483055002411.1.2.3 r1=1.551 x1=0.47 length=0.001 units=km normamps=125.0

! 3. Chaves Seccionadoras MT
new line.SC_5272069 phases=3 bus1=80541735002411.1.2.3 bus2=80541735002411B.1.2.3 switch=y r1=1e-4 x1=1e-4 length=0.001 units=km
new line.SC_GOLS013BANCAP524BC5 phases=3 bus1=I888888103085002411.1.2.3 bus2=I888888103085002411B.1.2.3 switch=y r1=1e-4 x1=1e-4 length=0.001 units=km
new line.SC_GOLS013BANCAP624BC6 phases=3 bus1=I888888312905002411.1.2.3 bus2=I888888312905002411B.1.2.3 switch=y r1=1e-4 x1=1e-4 length=0.001 units=km
new line.SC_GOLS013BANCAP623BC6 phases=3 bus1=I888888312905002411.1.2.3 bus2=I888888312905002411B.1.2.3 switch=y r1=1e-4 x1=1e-4 length=0.001 units=km
new line.SC_DA0000289 phases=3 bus1=I888888103085002411.1.2.3 bus2=I888888103085002411B.1.2.3 switch=y r1=1e-4 x1=1e-4 length=0.001 units=km
new line.SC_SA0002791 phases=3 bus1=I888888312905002411.1.2.3 bus2=I888888312905002411B.1.2.3 switch=y r1=1e-4 x1=1e-4 length=0.001 units=km
new line.SC_SA0002792 phases=3 bus1=I888888477675002411.1.2.3 bus2=I888888477675002411B.1.2.3 switch=y r1=1e-4 x1=1e-4 length=0.001 units=km
new line.SC_SA0002793 phases=3 bus1=I888888312915002411.1.2.3 bus2=I888888477660B.1.2.3 switch=y r1=1e-4 x1=1e-4 length=0.001 units=km

! 5. Transformadores MT/BT de Distribuicao
new transformer.UNTRMT_5807639 phases=3 windings=2 %r=1.39 xhl=3.21 kva=75.0
~ wdg=1 bus=99218515007259.1.2.3 conn=delta kv=13.8
~ wdg=2 bus=99218515807639.1.2.3.0 conn=wye kv=0.38

new transformer.UNTRMT_5807642 phases=3 windings=2 %r=1.39 xhl=3.21 kva=75.0
~ wdg=1 bus=99218625007259.1.2.3 conn=delta kv=13.8
~ wdg=2 bus=99218625807642.1.2.3.0 conn=wye kv=0.38

new transformer.UNTRMT_5807643 phases=3 windings=2 %r=1.39 xhl=3.21 kva=75.0
~ wdg=1 bus=99218395007259.1.2.3 conn=delta kv=13.8
~ wdg=2 bus=99218395807643.1.2.3.0 conn=wye kv=0.38

new transformer.UNTRMT_5807644 phases=3 windings=2 %r=1.39 xhl=3.21 kva=75.0
~ wdg=1 bus=99218775007259.1.2.3 conn=delta kv=13.8
~ wdg=2 bus=99218775807644.1.2.3.0 conn=wye kv=0.38

new transformer.UNTRMT_5807645 phases=3 windings=2 %r=1.3 xhl=4.31 kva=75.0
~ wdg=1 bus=99218735007259.1.2.3 conn=delta kv=13.8
~ wdg=2 bus=99218735807645.1.2.3.0 conn=wye kv=0.38

new transformer.UNTRMT_5807647 phases=3 windings=2 %r=1.39 xhl=3.21 kva=75.0
~ wdg=1 bus=99218655007259.1.2.3 conn=delta kv=13.8
~ wdg=2 bus=99218655807647.1.2.3.0 conn=wye kv=0.38

new transformer.UNTRMT_5807648 phases=3 windings=2 %r=1.68 xhl=3.07 kva=75.0
~ wdg=1 bus=99218565007259.1.2.3 conn=delta kv=13.8
~ wdg=2 bus=99218565807648.1.2.3.0 conn=wye kv=0.38

new transformer.UNTRMT_5807906 phases=3 windings=2 %r=1.68 xhl=3.07 kva=75.0
~ wdg=1 bus=99224085007259.1.2.3 conn=delta kv=13.8
~ wdg=2 bus=99224085807906.1.2.3.0 conn=wye kv=0.38

new transformer.UNTRMT_5807907 phases=3 windings=2 %r=1.68 xhl=3.07 kva=75.0
~ wdg=1 bus=99224415007259.1.2.3 conn=delta kv=13.8
~ wdg=2 bus=99224415807907.1.2.3.0 conn=wye kv=0.38

new transformer.UNTRMT_5807908 phases=3 windings=2 %r=1.3 xhl=4.31 kva=75.0
~ wdg=1 bus=99224395007259.1.2.3 conn=delta kv=13.8
~ wdg=2 bus=99224395807908.1.2.3.0 conn=wye kv=0.38

new transformer.UNTRMT_5807909 phases=3 windings=2 %r=1.3 xhl=4.31 kva=75.0
~ wdg=1 bus=99224335007259.1.2.3 conn=delta kv=13.8
~ wdg=2 bus=99224335807909.1.2.3.0 conn=wye kv=0.38

new transformer.UNTRMT_5807910 phases=3 windings=2 %r=1.3 xhl=4.31 kva=75.0
~ wdg=1 bus=99224305007259.1.2.3 conn=delta kv=13.8
~ wdg=2 bus=99224305807910.1.2.3.0 conn=wye kv=0.38

new transformer.UNTRMT_5807912 phases=3 windings=2 %r=1.68 xhl=3.07 kva=45.0
~ wdg=1 bus=99224145007259.1.2.3 conn=delta kv=13.8
~ wdg=2 bus=99224145807912.1.2.3.0 conn=wye kv=0.38

new transformer.UNTRMT_5807646 phases=3 windings=2 %r=1.68 xhl=3.07 kva=75.0
~ wdg=1 bus=99218685007259.1.2.3 conn=delta kv=13.8
~ wdg=2 bus=99218685807646.1.2.3.0 conn=wye kv=0.38

new transformer.UNTRMT_5807911 phases=3 windings=2 %r=1.68 xhl=3.07 kva=75.0
~ wdg=1 bus=99224295007259.1.2.3 conn=delta kv=13.8
~ wdg=2 bus=99224295807911.1.2.3.0 conn=wye kv=0.38

new transformer.UNTRMT_5271537 phases=3 windings=2 %r=1.68 xhl=3.07 kva=45.0
~ wdg=1 bus=80506415007259.1.2.3 conn=delta kv=13.8
~ wdg=2 bus=80506415271537.1.2.3.0 conn=wye kv=0.38

new transformer.UNTRMT_5271541 phases=3 windings=2 %r=1.78 xhl=3.01 kva=30.0
~ wdg=1 bus=80519545007259.1.2.3 conn=delta kv=13.8
~ wdg=2 bus=80519545271541.1.2.3.0 conn=wye kv=0.38

new transformer.UNTRMT_5271547 phases=3 windings=2 %r=1.78 xhl=3.01 kva=30.0
~ wdg=1 bus=95532085007259.1.2.3 conn=delta kv=13.8
~ wdg=2 bus=95532085271547.1.2.3.0 conn=wye kv=0.38

new transformer.UNTRMT_5271550 phases=3 windings=2 %r=1.55 xhl=3.14 kva=75.0
~ wdg=1 bus=80514525007259.1.2.3 conn=delta kv=13.8
~ wdg=2 bus=80514525271550.1.2.3.0 conn=wye kv=0.38

new transformer.UNTRMT_5271615 phases=3 windings=2 %r=1.55 xhl=3.14 kva=75.0
~ wdg=1 bus=80501655007259.1.2.3 conn=delta kv=13.8
~ wdg=2 bus=80501655271615.1.2.3.0 conn=wye kv=0.38

new transformer.UNTRMT_5271616 phases=3 windings=2 %r=1.55 xhl=3.14 kva=75.0
~ wdg=1 bus=80501685007259.1.2.3 conn=delta kv=13.8
~ wdg=2 bus=80501685271616.1.2.3.0 conn=wye kv=0.38

new transformer.UNTRMT_5271617 phases=3 windings=2 %r=1.55 xhl=3.14 kva=75.0
~ wdg=1 bus=80501645007259.1.2.3 conn=delta kv=13.8
~ wdg=2 bus=80501645271617.1.2.3.0 conn=wye kv=0.38

new transformer.UNTRMT_5271618 phases=3 windings=2 %r=1.55 xhl=3.14 kva=75.0
~ wdg=1 bus=80501735007259.1.2.3 conn=delta kv=13.8
~ wdg=2 bus=80501735271618.1.2.3.0 conn=wye kv=0.38

new transformer.UNTRMT_5271619 phases=3 windings=2 %r=1.55 xhl=3.14 kva=75.0
~ wdg=1 bus=80504435007259.1.2.3 conn=delta kv=13.8
~ wdg=2 bus=80504435271619.1.2.3.0 conn=wye kv=0.38

new transformer.UNTRMT_5271620 phases=3 windings=2 %r=1.55 xhl=3.14 kva=75.0
~ wdg=1 bus=80504495007259.1.2.3 conn=delta kv=13.8
~ wdg=2 bus=80504495271620.1.2.3.0 conn=wye kv=0.38

new transformer.UNTRMT_5271621 phases=3 windings=2 %r=1.55 xhl=3.14 kva=75.0
~ wdg=1 bus=80504755007259.1.2.3 conn=delta kv=13.8
~ wdg=2 bus=80504755271621.1.2.3.0 conn=wye kv=0.38

new transformer.UNTRMT_5271622 phases=3 windings=2 %r=1.55 xhl=3.14 kva=75.0
~ wdg=1 bus=80504065007259.1.2.3 conn=delta kv=13.8
~ wdg=2 bus=80504065271622.1.2.3.0 conn=wye kv=0.38

new transformer.UNTRMT_5271623 phases=3 windings=2 %r=1.55 xhl=3.14 kva=75.0
~ wdg=1 bus=80504785007259.1.2.3 conn=delta kv=13.8
~ wdg=2 bus=80504785271623.1.2.3.0 conn=wye kv=0.38

new transformer.UNTRMT_5271624 phases=3 windings=2 %r=1.68 xhl=3.07 kva=45.0
~ wdg=1 bus=80507355007259.1.2.3 conn=delta kv=13.8
~ wdg=2 bus=80507355271624.1.2.3.0 conn=wye kv=0.38

new transformer.UNTRMT_5271625 phases=3 windings=2 %r=1.55 xhl=3.14 kva=75.0
~ wdg=1 bus=80507595007259.1.2.3 conn=delta kv=13.8
~ wdg=2 bus=80507595271625.1.2.3.0 conn=wye kv=0.38

new transformer.UNTRMT_5271626 phases=3 windings=2 %r=1.68 xhl=3.07 kva=45.0
~ wdg=1 bus=80507755007259.1.2.3 conn=delta kv=13.8
~ wdg=2 bus=80507755271626.1.2.3.0 conn=wye kv=0.38

new transformer.UNTRMT_5271627 phases=3 windings=2 %r=1.78 xhl=3.01 kva=30.0
~ wdg=1 bus=80507845007259.1.2.3 conn=delta kv=13.8
~ wdg=2 bus=80507845271627.1.2.3.0 conn=wye kv=0.38

new transformer.UNTRMT_5271628 phases=3 windings=2 %r=1.55 xhl=3.14 kva=75.0
~ wdg=1 bus=80506575007259.1.2.3 conn=delta kv=13.8
~ wdg=2 bus=80506575271628.1.2.3.0 conn=wye kv=0.38

new transformer.UNTRMT_5271629 phases=3 windings=2 %r=1.55 xhl=3.14 kva=75.0
~ wdg=1 bus=80506865007259.1.2.3 conn=delta kv=13.8
~ wdg=2 bus=80506865271629-283.1.2.3.0 conn=wye kv=0.38

new transformer.UNTRMT_5271630 phases=3 windings=2 %r=1.55 xhl=3.14 kva=75.0
~ wdg=1 bus=80505385007259.1.2.3 conn=delta kv=13.8
~ wdg=2 bus=80505385271630.1.2.3.0 conn=wye kv=0.38

new transformer.UNTRMT_5271631 phases=3 windings=2 %r=1.46 xhl=3.18 kva=112.0
~ wdg=1 bus=80505765007259.1.2.3 conn=delta kv=13.8
~ wdg=2 bus=80505765271631.1.2.3.0 conn=wye kv=0.38

new transformer.UNTRMT_5271632 phases=3 windings=2 %r=1.46 xhl=3.18 kva=112.0
~ wdg=1 bus=80506345007259.1.2.3 conn=delta kv=13.8
~ wdg=2 bus=80506345271632.1.2.3.0 conn=wye kv=0.38

new transformer.UNTRMT_5271633 phases=3 windings=2 %r=1.55 xhl=3.14 kva=75.0
~ wdg=1 bus=80506305007259.1.2.3 conn=delta kv=13.8
~ wdg=2 bus=80506305271633.1.2.3.0 conn=wye kv=0.38

new transformer.UNTRMT_5271634 phases=3 windings=2 %r=1.55 xhl=3.14 kva=75.0
~ wdg=1 bus=80503075007259.1.2.3 conn=delta kv=13.8
~ wdg=2 bus=80503075271634-284.1.2.3.0 conn=wye kv=0.38

new transformer.UNTRMT_5271635 phases=3 windings=2 %r=1.55 xhl=3.14 kva=75.0
~ wdg=1 bus=80503645007259.1.2.3 conn=delta kv=13.8
~ wdg=2 bus=80503645271635.1.2.3.0 conn=wye kv=0.38

new transformer.UNTRMT_5271636 phases=3 windings=2 %r=1.68 xhl=3.07 kva=45.0
~ wdg=1 bus=80503695007259.1.2.3 conn=delta kv=13.8
~ wdg=2 bus=80503695271636.1.2.3.0 conn=wye kv=0.38

new transformer.UNTRMT_5271637 phases=3 windings=2 %r=1.46 xhl=3.18 kva=112.0
~ wdg=1 bus=80506155007259.1.2.3 conn=delta kv=13.8
~ wdg=2 bus=80506155271637.1.2.3.0 conn=wye kv=0.38

new transformer.UNTRMT_5271638 phases=3 windings=2 %r=1.55 xhl=3.14 kva=75.0
~ wdg=1 bus=80505855007259.1.2.3 conn=delta kv=13.8
~ wdg=2 bus=80505855271638.1.2.3.0 conn=wye kv=0.38

new transformer.UNTRMT_5271641 phases=3 windings=2 %r=1.55 xhl=3.14 kva=75.0
~ wdg=1 bus=80505525007259.1.2.3 conn=delta kv=13.8
~ wdg=2 bus=80505525271641-285.1.2.3.0 conn=wye kv=0.38

new transformer.UNTRMT_5271648 phases=3 windings=2 %r=1.55 xhl=3.14 kva=75.0
~ wdg=1 bus=80513355007259.1.2.3 conn=delta kv=13.8
~ wdg=2 bus=80513355271648.1.2.3.0 conn=wye kv=0.38

new transformer.UNTRMT_5271649 phases=3 windings=2 %r=1.55 xhl=3.14 kva=75.0
~ wdg=1 bus=80513615007259.1.2.3 conn=delta kv=13.8
~ wdg=2 bus=80513615271649.1.2.3.0 conn=wye kv=0.38

new transformer.UNTRMT_5271657 phases=3 windings=2 %r=1.68 xhl=3.07 kva=45.0
~ wdg=1 bus=80511025007259.1.2.3 conn=delta kv=13.8
~ wdg=2 bus=80511025271657.1.2.3.0 conn=wye kv=0.38

new transformer.UNTRMT_5271659 phases=3 windings=2 %r=1.55 xhl=3.14 kva=75.0
~ wdg=1 bus=80512155007259.1.2.3 conn=delta kv=13.8
~ wdg=2 bus=80512155271659.1.2.3.0 conn=wye kv=0.38

new transformer.UNTRMT_5271660 phases=3 windings=2 %r=1.78 xhl=3.01 kva=30.0
~ wdg=1 bus=80519375007259.1.2.3 conn=delta kv=13.8
~ wdg=2 bus=80519375271660.1.2.3.0 conn=wye kv=0.38

new transformer.UNTRMT_5271672 phases=3 windings=2 %r=1.55 xhl=3.14 kva=75.0
~ wdg=1 bus=80519705007259.1.2.3 conn=delta kv=13.8
~ wdg=2 bus=80519705271672.1.2.3.0 conn=wye kv=0.38

new transformer.UNTRMT_5271673 phases=3 windings=2 %r=1.55 xhl=3.14 kva=75.0
~ wdg=1 bus=80520035007259.1.2.3 conn=delta kv=13.8
~ wdg=2 bus=80520035271673.1.2.3.0 conn=wye kv=0.38

new transformer.UNTRMT_5271674 phases=3 windings=2 %r=1.39 xhl=3.21 kva=150.0
~ wdg=1 bus=80519285007259.1.2.3 conn=delta kv=13.8
~ wdg=2 bus=80519285271674.1.2.3.0 conn=wye kv=0.38

new transformer.UNTRMT_5271682 phases=3 windings=2 %r=1.55 xhl=3.14 kva=75.0
~ wdg=1 bus=80519345007259.1.2.3 conn=delta kv=13.8
~ wdg=2 bus=80519345271682.1.2.3.0 conn=wye kv=0.38

new transformer.UNTRMT_5271683 phases=3 windings=2 %r=1.46 xhl=3.18 kva=112.0
~ wdg=1 bus=80516715007259.1.2.3 conn=delta kv=13.8
~ wdg=2 bus=80516715271683.1.2.3.0 conn=wye kv=0.38

new transformer.UNTRMT_5271684 phases=3 windings=2 %r=1.55 xhl=3.14 kva=75.0
~ wdg=1 bus=80513215007259.1.2.3 conn=delta kv=13.8
~ wdg=2 bus=80513215271684.1.2.3.0 conn=wye kv=0.38

new transformer.UNTRMT_5271685 phases=3 windings=2 %r=1.3 xhl=4.31 kva=225.0
~ wdg=1 bus=80520235007259.1.2.3 conn=delta kv=13.8
~ wdg=2 bus=80520235271685.1.2.3.0 conn=wye kv=0.38

new transformer.UNTRMT_5289335 phases=3 windings=2 %r=1.55 xhl=3.14 kva=75.0
~ wdg=1 bus=82320685007259.1.2.3 conn=delta kv=13.8
~ wdg=2 bus=82320685289335.1.2.3.0 conn=wye kv=0.38

new transformer.UNTRMT_5305630 phases=3 windings=2 %r=1.68 xhl=3.07 kva=45.0
~ wdg=1 bus=80516605007259.1.2.3 conn=delta kv=13.8
~ wdg=2 bus=80516605305630.1.2.3.0 conn=wye kv=0.38

new transformer.UNTRMT_5305655 phases=3 windings=2 %r=1.68 xhl=3.07 kva=45.0
~ wdg=1 bus=95553425007259.1.2.3 conn=delta kv=13.8
~ wdg=2 bus=95553425305655.1.2.3.0 conn=wye kv=0.38

new transformer.UNTRMT_5307575 phases=3 windings=2 %r=1.78 xhl=3.01 kva=30.0
~ wdg=1 bus=80511855007259.1.2.3 conn=delta kv=13.8
~ wdg=2 bus=80511855307575.1.2.3.0 conn=wye kv=0.38

new transformer.UNTRMT_5307578 phases=3 windings=2 %r=1.78 xhl=3.01 kva=30.0
~ wdg=1 bus=80511975007259.1.2.3 conn=delta kv=13.8
~ wdg=2 bus=80511975307578.1.2.3.0 conn=wye kv=0.38

new transformer.UNTRMT_5307664 phases=3 windings=2 %r=1.68 xhl=3.07 kva=45.0
~ wdg=1 bus=95532205007259.1.2.3 conn=delta kv=13.8
~ wdg=2 bus=95532205307664.1.2.3.0 conn=wye kv=0.38

new transformer.UNTRMT_5318117 phases=3 windings=2 %r=1.55 xhl=3.14 kva=75.0
~ wdg=1 bus=84141295007259.1.2.3 conn=delta kv=13.8
~ wdg=2 bus=84141295318117.1.2.3.0 conn=wye kv=0.38

new transformer.UNTRMT_5320042 phases=3 windings=2 %r=1.55 xhl=3.14 kva=75.0
~ wdg=1 bus=84262875007259.1.2.3 conn=delta kv=13.8
~ wdg=2 bus=84262875320042.1.2.3.0 conn=wye kv=0.38

new transformer.UNTRMT_5445876 phases=3 windings=2 %r=1.3 xhl=4.31 kva=225.0
~ wdg=1 bus=86977025007259.1.2.3 conn=delta kv=13.8
~ wdg=2 bus=86977025445876.1.2.3.0 conn=wye kv=0.38

new transformer.UNTRMT_5468038 phases=3 windings=2 %r=1.39 xhl=3.21 kva=150.0
~ wdg=1 bus=87647075007259.1.2.3 conn=delta kv=13.8
~ wdg=2 bus=87647075468038.1.2.3.0 conn=wye kv=0.38

new transformer.UNTRMT_5486085 phases=3 windings=2 %r=1.68 xhl=3.07 kva=45.0
~ wdg=1 bus=80512485007259.1.2.3 conn=delta kv=13.8
~ wdg=2 bus=80512485486085.1.2.3.0 conn=wye kv=0.38

new transformer.UNTRMT_5502053 phases=3 windings=2 %r=1.3 xhl=4.31 kva=225.0
~ wdg=1 bus=88596575007259.1.2.3 conn=delta kv=13.8
~ wdg=2 bus=88596575502053.1.2.3.0 conn=wye kv=0.38

new transformer.UNTRMT_5506552 phases=3 windings=2 %r=1.3 xhl=4.31 kva=225.0
~ wdg=1 bus=88737635007259.1.2.3 conn=delta kv=13.8
~ wdg=2 bus=88737635506552.1.2.3.0 conn=wye kv=0.38

new transformer.UNTRMT_5506553 phases=3 windings=2 %r=1.39 xhl=3.21 kva=150.0
~ wdg=1 bus=88737625007259.1.2.3 conn=delta kv=13.8
~ wdg=2 bus=88737625506553.1.2.3.0 conn=wye kv=0.38

new transformer.UNTRMT_5515712 phases=3 windings=2 %r=1.78 xhl=3.01 kva=30.0
~ wdg=1 bus=89051295007259.1.2.3 conn=delta kv=13.8
~ wdg=2 bus=89051295515712.1.2.3.0 conn=wye kv=0.38

new transformer.UNTRMT_5518458 phases=3 windings=2 %r=1.78 xhl=3.01 kva=30.0
~ wdg=1 bus=80512705007259.1.2.3 conn=delta kv=13.8
~ wdg=2 bus=80512705518458.1.2.3.0 conn=wye kv=0.38

new transformer.UNTRMT_5522588 phases=3 windings=2 %r=1.3 xhl=4.31 kva=225.0
~ wdg=1 bus=89257195007259.1.2.3 conn=delta kv=13.8
~ wdg=2 bus=89257195522588.1.2.3.0 conn=wye kv=0.38

new transformer.UNTRMT_5522590 phases=3 windings=2 %r=1.3 xhl=4.31 kva=225.0
~ wdg=1 bus=89257225007259.1.2.3 conn=delta kv=13.8
~ wdg=2 bus=89257225522590.1.2.3.0 conn=wye kv=0.38

new transformer.UNTRMT_5522592 phases=3 windings=2 %r=1.3 xhl=4.31 kva=225.0
~ wdg=1 bus=89257745007259.1.2.3 conn=delta kv=13.8
~ wdg=2 bus=89257745522592.1.2.3.0 conn=wye kv=0.38

new transformer.UNTRMT_5523228 phases=3 windings=2 %r=1.39 xhl=3.21 kva=150.0
~ wdg=1 bus=88596615007259.1.2.3 conn=delta kv=13.8
~ wdg=2 bus=88596615523228.1.2.3.0 conn=wye kv=0.38

new transformer.UNTRMT_5550333 phases=3 windings=2 %r=1.78 xhl=3.01 kva=30.0
~ wdg=1 bus=88101085007259.1.2.3 conn=delta kv=13.8
~ wdg=2 bus=88101085550333.1.2.3.0 conn=wye kv=0.38

new transformer.UNTRMT_5620954 phases=3 windings=2 %r=1.25 xhl=4.32 kva=300.0
~ wdg=1 bus=94233725007259.1.2.3 conn=delta kv=13.8
~ wdg=2 bus=94233725620954.1.2.3.0 conn=wye kv=0.38

new transformer.UNTRMT_5623418 phases=3 windings=2 %r=1.78 xhl=3.01 kva=30.0
~ wdg=1 bus=92352945007259.1.2.3 conn=delta kv=13.8
~ wdg=2 bus=92352945623418.1.2.3.0 conn=wye kv=0.38

new transformer.UNTRMT_5627051 phases=3 windings=2 %r=1.46 xhl=3.18 kva=112.0
~ wdg=1 bus=92444305007259.1.2.3 conn=delta kv=13.8
~ wdg=2 bus=92444305627051.1.2.3.0 conn=wye kv=0.38

new transformer.UNTRMT_5673930 phases=3 windings=2 %r=1.55 xhl=3.14 kva=75.0
~ wdg=1 bus=93916215007259.1.2.3 conn=delta kv=13.8
~ wdg=2 bus=93916215673930.1.2.3.0 conn=wye kv=0.38

new transformer.UNTRMT_5686695 phases=3 windings=2 %r=1.55 xhl=3.14 kva=75.0
~ wdg=1 bus=80519855007259.1.2.3 conn=delta kv=13.8
~ wdg=2 bus=80519855686695.1.2.3.0 conn=wye kv=0.38

new transformer.UNTRMT_5707294 phases=3 windings=2 %r=1.78 xhl=3.01 kva=30.0
~ wdg=1 bus=93335355007259.1.2.3 conn=delta kv=13.8
~ wdg=2 bus=93335355707294.1.2.3.0 conn=wye kv=0.38

new transformer.UNTRMT_5754715 phases=3 windings=2 %r=1.68 xhl=3.07 kva=45.0
~ wdg=1 bus=96804485007259.1.2.3 conn=delta kv=13.8
~ wdg=2 bus=96804485754715-1254.1.2.3.0 conn=wye kv=0.38

new transformer.UNTRMT_5754716 phases=3 windings=2 %r=1.39 xhl=3.21 kva=150.0
~ wdg=1 bus=96874375007259.1.2.3 conn=delta kv=13.8
~ wdg=2 bus=96874375754716.1.2.3.0 conn=wye kv=0.38

new transformer.UNTRMT_5754717 phases=3 windings=2 %r=1.3 xhl=4.31 kva=225.0
~ wdg=1 bus=96805505007259.1.2.3 conn=delta kv=13.8
~ wdg=2 bus=96805505754717-1255.1.2.3.0 conn=wye kv=0.38

new transformer.UNTRMT_5754718 phases=3 windings=2 %r=1.39 xhl=3.21 kva=150.0
~ wdg=1 bus=96876865007259.1.2.3 conn=delta kv=13.8
~ wdg=2 bus=96876865754718.1.2.3.0 conn=wye kv=0.38

new transformer.UNTRMT_5754719 phases=3 windings=2 %r=1.3 xhl=4.31 kva=225.0
~ wdg=1 bus=96876405007259.1.2.3 conn=delta kv=13.8
~ wdg=2 bus=96876405754719.1.2.3.0 conn=wye kv=0.38

new transformer.UNTRMT_5754720 phases=3 windings=2 %r=1.39 xhl=3.21 kva=150.0
~ wdg=1 bus=96877045007259.1.2.3 conn=delta kv=13.8
~ wdg=2 bus=96877045754720.1.2.3.0 conn=wye kv=0.38

new transformer.UNTRMT_5754724 phases=3 windings=2 %r=1.68 xhl=3.07 kva=45.0
~ wdg=1 bus=96806505007259.1.2.3 conn=delta kv=13.8
~ wdg=2 bus=96806505754724-1256.1.2.3.0 conn=wye kv=0.38

new transformer.UNTRMT_5754725 phases=3 windings=2 %r=1.68 xhl=3.07 kva=45.0
~ wdg=1 bus=96807675007259.1.2.3 conn=delta kv=13.8
~ wdg=2 bus=96807675754725.1.2.3.0 conn=wye kv=0.38

new transformer.UNTRMT_5754726 phases=3 windings=2 %r=1.3 xhl=4.31 kva=225.0
~ wdg=1 bus=96877005007259.1.2.3 conn=delta kv=13.8
~ wdg=2 bus=96877005754726.1.2.3.0 conn=wye kv=0.38

new transformer.UNTRMT_5754727 phases=3 windings=2 %r=1.68 xhl=3.07 kva=45.0
~ wdg=1 bus=96807805007259.1.2.3 conn=delta kv=13.8
~ wdg=2 bus=96807805754727.1.2.3.0 conn=wye kv=0.38

new transformer.UNTRMT_5755762 phases=3 windings=2 %r=1.25 xhl=4.32 kva=225.0
~ wdg=1 bus=96830875007259.1.2.3 conn=delta kv=13.8
~ wdg=2 bus=96830875755762-1264.1.2.3.0 conn=wye kv=0.38

new transformer.UNTRMT_5755793 phases=3 windings=2 %r=1.25 xhl=4.32 kva=225.0
~ wdg=1 bus=96833265007259.1.2.3 conn=delta kv=13.8
~ wdg=2 bus=96833265755793.1.2.3.0 conn=wye kv=0.38

new transformer.UNTRMT_5755804 phases=3 windings=2 %r=1.25 xhl=4.32 kva=225.0
~ wdg=1 bus=96826595007259.1.2.3 conn=delta kv=13.8
~ wdg=2 bus=96826595755804-1265.1.2.3.0 conn=wye kv=0.38

new transformer.UNTRMT_5756020 phases=3 windings=2 %r=1.25 xhl=4.32 kva=225.0
~ wdg=1 bus=96831345007259.1.2.3 conn=delta kv=13.8
~ wdg=2 bus=96831345756020.1.2.3.0 conn=wye kv=0.38

! 6. Linhas de Baixa Tensao (BT)
new line.52883891 phases=3 bus1=80506605271628.1.2.3.0 bus2=96163005271628.1.2.3.0 r1=0.506 x1=0.1 length=0.005457 units=km normamps=157.0
new line.52883899 phases=3 bus1=80505335271628.1.2.3.0 bus2=80505345271628.1.2.3.0 r1=0.975 x1=0.47 length=0.034053 units=km normamps=152.0
new line.52883911 phases=3 bus1=80506505271630.1.2.3.0 bus2=80506515271630.1.2.3.0 r1=0.975 x1=0.47 length=0.028282 units=km normamps=152.0
new line.52883916 phases=3 bus1=80505405271630.1.2.3.0 bus2=80506665271630.1.2.3.0 r1=0.975 x1=0.47 length=0.045655 units=km normamps=152.0
new line.52883920 phases=3 bus1=80505755271631.1.2.3.0 bus2=80505765271631.1.2.3.0 r1=0.506 x1=0.1 length=0.037162 units=km normamps=157.0
new line.52883926 phases=3 bus1=80505695271631.1.2.3.0 bus2=80505685271631.1.2.3.0 r1=0.991 x1=0.1 length=0.024938 units=km normamps=100.0
new line.52883929 phases=3 bus1=80505725271631.1.2.3.0 bus2=80505685271631.1.2.3.0 r1=0.991 x1=0.1 length=0.029125 units=km normamps=100.0
new line.52883938 phases=3 bus1=80505715271631.1.2.3.0 bus2=80520285271631.1.2.3.0 r1=0.991 x1=0.1 length=0.043152 units=km normamps=100.0
new line.52883940 phases=3 bus1=80519025271631.1.2.3.0 bus2=80519035271631.1.2.3.0 r1=0.991 x1=0.1 length=0.03021 units=km normamps=100.0
new line.52883945 phases=3 bus1=80502085271631.1.2.3.0 bus2=80502105271631.1.2.3.0 r1=0.991 x1=0.1 length=0.031961 units=km normamps=100.0
new line.52883947 phases=3 bus1=80502115271631.1.2.3.0 bus2=80519065271631.1.2.3.0 r1=0.975 x1=0.47 length=0.00636 units=km normamps=152.0
new line.52884019 phases=3 bus1=80501795271615.1.2.3.0 bus2=80501755271615.1.2.3.0 r1=0.975 x1=0.47 length=0.011659 units=km normamps=152.0
new line.52884025 phases=3 bus1=80501865271615.1.2.3.0 bus2=80501855271615.1.2.3.0 r1=0.975 x1=0.47 length=0.026007 units=km normamps=152.0
new line.52884045 phases=3 bus1=80501665271617.1.2.3.0 bus2=80501765271617.1.2.3.0 r1=0.975 x1=0.47 length=0.015201 units=km normamps=152.0
new line.52884047 phases=3 bus1=80501775271617.1.2.3.0 bus2=80501785271617.1.2.3.0 r1=0.975 x1=0.47 length=0.031962 units=km normamps=152.0
new line.52884049 phases=3 bus1=80503065271617.1.2.3.0 bus2=80506085271617.1.2.3.0 r1=0.975 x1=0.47 length=0.037038 units=km normamps=152.0
new line.52884050 phases=3 bus1=80501635271617.1.2.3.0 bus2=80506025271617.1.2.3.0 r1=0.613 x1=0.45 length=0.025727 units=km normamps=203.0
new line.52884057 phases=3 bus1=80503065271617.1.2.3.0 bus2=80501615271617.1.2.3.0 r1=0.975 x1=0.47 length=0.032109 units=km normamps=152.0
new line.52884067 phases=3 bus1=80501915271618.1.2.3.0 bus2=80501905271618.1.2.3.0 r1=0.991 x1=0.1 length=0.037155 units=km normamps=100.0
new line.52884069 phases=3 bus1=80501745271618.1.2.3.0 bus2=80501925271618.1.2.3.0 r1=0.506 x1=0.1 length=0.011569 units=km normamps=157.0
new line.52884074 phases=3 bus1=80502015271618.1.2.3.0 bus2=80502025271618.1.2.3.0 r1=0.991 x1=0.1 length=0.029969 units=km normamps=100.0
new line.52884078 phases=3 bus1=80504265271619.1.2.3.0 bus2=80504255271619.1.2.3.0 r1=0.975 x1=0.47 length=0.032976 units=km normamps=152.0
new line.52884084 phases=3 bus1=80504325271619.1.2.3.0 bus2=80504315271619.1.2.3.0 r1=0.975 x1=0.47 length=0.026381 units=km normamps=152.0
new line.52884087 phases=3 bus1=80504345271619.1.2.3.0 bus2=80504355271619.1.2.3.0 r1=0.975 x1=0.47 length=0.026902 units=km normamps=152.0
new line.52884111 phases=3 bus1=80505195271620.1.2.3.0 bus2=80504695271620.1.2.3.0 r1=0.975 x1=0.47 length=0.012648 units=km normamps=152.0
new line.52884114 phases=3 bus1=80505225271620.1.2.3.0 bus2=80505235271620.1.2.3.0 r1=0.975 x1=0.47 length=0.034996 units=km normamps=152.0
new line.52884117 phases=3 bus1=80505255271620.1.2.3.0 bus2=80505245271620.1.2.3.0 r1=0.975 x1=0.47 length=0.021665 units=km normamps=152.0
new line.52884131 phases=3 bus1=80504745271621.1.2.3.0 bus2=80504725271621.1.2.3.0 r1=0.975 x1=0.47 length=0.044256 units=km normamps=152.0
new line.52884137 phases=3 bus1=80504965271621.1.2.3.0 bus2=80504955271621.1.2.3.0 r1=0.975 x1=0.47 length=0.034129 units=km normamps=152.0
new line.52884140 phases=3 bus1=80504995271621.1.2.3.0 bus2=80504985271621.1.2.3.0 r1=0.975 x1=0.47 length=0.010226 units=km normamps=152.0
new line.52884156 phases=3 bus1=80503795271622.1.2.3.0 bus2=80503805271622.1.2.3.0 r1=0.975 x1=0.47 length=0.020981 units=km normamps=152.0
new line.52884158 phases=3 bus1=80503815271622.1.2.3.0 bus2=80503825271622.1.2.3.0 r1=0.975 x1=0.47 length=0.041524 units=km normamps=152.0
new line.52884164 phases=3 bus1=80503865271622.1.2.3.0 bus2=80503885271622.1.2.3.0 r1=0.975 x1=0.47 length=0.04845 units=km normamps=152.0
new line.52884165 phases=3 bus1=80503885271622.1.2.3.0 bus2=80503895271622.1.2.3.0 r1=0.975 x1=0.47 length=0.038178 units=km normamps=152.0
new line.52884167 phases=3 bus1=80503915271622.1.2.3.0 bus2=80503905271622.1.2.3.0 r1=0.975 x1=0.47 length=0.0311 units=km normamps=152.0
new line.52884183 phases=3 bus1=80504065271622.1.2.3.0 bus2=80503925271622.1.2.3.0 r1=0.613 x1=0.45 length=0.036498 units=km normamps=203.0
new line.52884184 phases=3 bus1=80504075271622.1.2.3.0 bus2=80504065271622.1.2.3.0 r1=0.613 x1=0.45 length=0.046422 units=km normamps=203.0
new line.52884187 phases=3 bus1=80504095271622.1.2.3.0 bus2=80504085271622.1.2.3.0 r1=0.613 x1=0.45 length=0.018292 units=km normamps=203.0
new line.52884191 phases=3 bus1=80504135271622.1.2.3.0 bus2=80504125271622.1.2.3.0 r1=0.975 x1=0.47 length=0.026763 units=km normamps=152.0
new line.52884192 phases=3 bus1=80504145271622.1.2.3.0 bus2=80504135271622.1.2.3.0 r1=0.975 x1=0.47 length=0.04349 units=km normamps=152.0
new line.52884207 phases=3 bus1=80504905271623.1.2.3.0 bus2=80504895271623.1.2.3.0 r1=1.551 x1=0.49 length=0.030092 units=km normamps=114.0
new line.52884216 phases=3 bus1=80507425271624.1.2.3.0 bus2=80507445271624.1.2.3.0 r1=0.613 x1=0.45 length=0.027202 units=km normamps=203.0
new line.52884239 phases=3 bus1=80507535271625.1.2.3.0 bus2=80507525271625.1.2.3.0 r1=0.975 x1=0.47 length=0.028704 units=km normamps=152.0
new line.52884241 phases=3 bus1=80507555271625.1.2.3.0 bus2=80507545271625.1.2.3.0 r1=0.975 x1=0.47 length=0.016787 units=km normamps=152.0
new line.52884247 phases=3 bus1=80507615271625.1.2.3.0 bus2=80507605271625.1.2.3.0 r1=0.975 x1=0.47 length=0.036404 units=km normamps=152.0
new line.52884254 phases=3 bus1=80507585271625.1.2.3.0 bus2=80507675271625.1.2.3.0 r1=0.975 x1=0.47 length=0.037155 units=km normamps=152.0
new line.52884262 phases=3 bus1=80507635271626.1.2.3.0 bus2=80507625271626.1.2.3.0 r1=0.613 x1=0.45 length=0.025561 units=km normamps=203.0
new line.52884274 phases=3 bus1=80507815271627.1.2.3.0 bus2=80507825271627.1.2.3.0 r1=0.613 x1=0.45 length=0.029935 units=km normamps=203.0
new line.52884276 phases=3 bus1=80507835271627.1.2.3.0 bus2=80507845271627.1.2.3.0 r1=0.613 x1=0.45 length=0.026753 units=km normamps=203.0
new line.52884278 phases=1 bus1=80504155271628.1.0 bus2=80504165271628.1.0 r1=0.975 x1=0.47 length=0.033107 units=km normamps=152.0
new line.52884300 phases=3 bus1=80506525271630.1.2.3.0 bus2=80506535271630.1.2.3.0 r1=0.975 x1=0.47 length=0.023318 units=km normamps=152.0
new line.52884312 phases=3 bus1=80502065271631.1.2.3.0 bus2=80502075271631.1.2.3.0 r1=0.991 x1=0.1 length=0.041915 units=km normamps=100.0
new line.52884315 phases=3 bus1=80502145271631.1.2.3.0 bus2=80502135271631.1.2.3.0 r1=0.991 x1=0.1 length=0.016136 units=km normamps=100.0
new line.52884322 phases=3 bus1=80507935271632.1.2.3.0 bus2=80506365271632.1.2.3.0 r1=0.613 x1=0.45 length=0.048932 units=km normamps=203.0
new line.52884328 phases=3 bus1=80507965271632.1.2.3.0 bus2=80507955271632.1.2.3.0 r1=0.991 x1=0.1 length=0.016239 units=km normamps=100.0
new line.52884337 phases=3 bus1=80508185271632.1.2.3.0 bus2=80508165271632.1.2.3.0 r1=0.975 x1=0.47 length=0.033632 units=km normamps=152.0
new line.52884358 phases=3 bus1=80506245271633.1.2.3.0 bus2=80506305271633.1.2.3.0 r1=0.613 x1=0.45 length=0.018005 units=km normamps=203.0
new line.52884367 phases=3 bus1=80506935271633.1.2.3.0 bus2=80506265271633.1.2.3.0 r1=0.975 x1=0.47 length=0.030285 units=km normamps=152.0
new line.52884375 phases=3 bus1=80503755271634-284.1.2.3.0 bus2=80503205271634-284.1.2.3.0 r1=0.975 x1=0.47 length=0.032887 units=km normamps=152.0
new line.52884377 phases=3 bus1=80506425271634-284.1.2.3.0 bus2=80506435271634-284.1.2.3.0 r1=0.975 x1=0.47 length=0.035607 units=km normamps=152.0
new line.52884396 phases=3 bus1=80503105271634-284.1.2.3.0 bus2=80503095271634-284.1.2.3.0 r1=0.613 x1=0.45 length=0.025805 units=km normamps=203.0
new line.52884405 phases=3 bus1=80503195271634-284.1.2.3.0 bus2=80394315271634-284.1.2.3.0 r1=0.975 x1=0.47 length=0.028216 units=km normamps=152.0
new line.52884409 phases=3 bus1=80503285271635.1.2.3.0 bus2=80503315271635.1.2.3.0 r1=0.975 x1=0.47 length=0.01243 units=km normamps=152.0
new line.52884411 phases=3 bus1=80503335271635.1.2.3.0 bus2=80503325271635.1.2.3.0 r1=0.975 x1=0.47 length=0.034297 units=km normamps=152.0
new line.52884418 phases=3 bus1=80503395271635.1.2.3.0 bus2=80503405271635.1.2.3.0 r1=0.975 x1=0.47 length=0.030506 units=km normamps=152.0
new line.52884429 phases=3 bus1=80503505271635.1.2.3.0 bus2=80503495271635.1.2.3.0 r1=0.975 x1=0.47 length=0.018519 units=km normamps=152.0
new line.52884431 phases=3 bus1=80503525271635.1.2.3.0 bus2=80503515271635.1.2.3.0 r1=0.975 x1=0.47 length=0.037501 units=km normamps=152.0
new line.52884433 phases=3 bus1=80503535271635.1.2.3.0 bus2=80503375271635.1.2.3.0 r1=0.975 x1=0.47 length=0.019854 units=km normamps=152.0
new line.52884434 phases=3 bus1=80503545271635.1.2.3.0 bus2=80503535271635.1.2.3.0 r1=0.975 x1=0.47 length=0.028078 units=km normamps=152.0
new line.52884436 phases=3 bus1=80503565271635.1.2.3.0 bus2=80503555271635.1.2.3.0 r1=0.975 x1=0.47 length=0.036313 units=km normamps=152.0
new line.52884439 phases=3 bus1=80503375271635.1.2.3.0 bus2=80503595271635.1.2.3.0 r1=0.975 x1=0.47 length=0.033981 units=km normamps=152.0
new line.52884460 phases=3 bus1=80503725271636.1.2.3.0 bus2=80503735271636.1.2.3.0 r1=0.975 x1=0.47 length=0.02892 units=km normamps=152.0
new line.52884469 phases=3 bus1=80502385271636.1.2.3.0 bus2=80502375271636.1.2.3.0 r1=0.975 x1=0.47 length=0.050076 units=km normamps=152.0
new line.52884471 phases=3 bus1=80503225271636.1.2.3.0 bus2=80503215271636.1.2.3.0 r1=0.975 x1=0.47 length=0.034287 units=km normamps=152.0
new line.52884472 phases=3 bus1=80503235271636.1.2.3.0 bus2=80503225271636.1.2.3.0 r1=0.975 x1=0.47 length=0.029084 units=km normamps=152.0
new line.52884477 phases=3 bus1=80502365271636.1.2.3.0 bus2=80503265271636.1.2.3.0 r1=0.975 x1=0.47 length=0.019844 units=km normamps=152.0
new line.52884483 phases=3 bus1=80505875271638.1.2.3.0 bus2=80505865271638.1.2.3.0 r1=0.975 x1=0.47 length=0.011659 units=km normamps=152.0
new line.52884488 phases=3 bus1=80505925271638.1.2.3.0 bus2=80505915271638.1.2.3.0 r1=0.975 x1=0.47 length=0.037167 units=km normamps=152.0
new line.52884495 phases=3 bus1=80505995271638.1.2.3.0 bus2=80505985271638.1.2.3.0 r1=0.975 x1=0.47 length=0.041525 units=km normamps=152.0
new line.52884516 phases=3 bus1=80508045271632.1.2.3.0 bus2=80508035271632.1.2.3.0 r1=0.975 x1=0.47 length=0.041637 units=km normamps=152.0
new line.52884527 phases=3 bus1=80502345271636.1.2.3.0 bus2=80503275271636.1.2.3.0 r1=0.975 x1=0.47 length=0.035438 units=km normamps=152.0
new line.52884529 phases=3 bus1=80504615271637.1.2.3.0 bus2=80504605271637.1.2.3.0 r1=0.975 x1=0.47 length=0.014461 units=km normamps=152.0
new line.52884530 phases=3 bus1=80505125271637.1.2.3.0 bus2=80504615271637.1.2.3.0 r1=0.613 x1=0.45 length=0.022074 units=km normamps=203.0
new line.52884565 phases=3 bus1=80507095271641-285.1.2.3.0 bus2=80507105271641-285.1.2.3.0 r1=0.975 x1=0.47 length=0.019669 units=km normamps=152.0
new line.52884571 phases=3 bus1=80505455271641-285.1.2.3.0 bus2=80505445271641-285.1.2.3.0 r1=0.975 x1=0.47 length=0.011061 units=km normamps=152.0
new line.52884576 phases=3 bus1=80505505271641-285.1.2.3.0 bus2=80505495271641-285.1.2.3.0 r1=0.975 x1=0.47 length=0.023318 units=km normamps=152.0
new line.52884577 phases=3 bus1=80505535271641-285.1.2.3.0 bus2=80505545271641-285.1.2.3.0 r1=0.975 x1=0.47 length=0.037505 units=km normamps=152.0
new line.52884582 phases=3 bus1=80505585271641-285.1.2.3.0 bus2=80505575271641-285.1.2.3.0 r1=0.975 x1=0.47 length=0.034865 units=km normamps=152.0
new line.52884588 phases=3 bus1=80505615271641-285.1.2.3.0 bus2=80505535271641-285.1.2.3.0 r1=0.975 x1=0.47 length=0.026841 units=km normamps=152.0
new line.52884592 phases=3 bus1=80520295271641-285.1.2.3.0 bus2=80520305271641-285.1.2.3.0 r1=0.975 x1=0.47 length=0.027683 units=km normamps=152.0
new line.52884699 phases=3 bus1=80506205271637.1.2.3.0 bus2=80505125271637.1.2.3.0 r1=0.613 x1=0.45 length=0.022865 units=km normamps=203.0
new line.52884701 phases=3 bus1=80505135271638.1.2.3.0 bus2=80505145271638.1.2.3.0 r1=0.975 x1=0.47 length=0.024102 units=km normamps=152.0
new line.52884703 phases=3 bus1=80505155271638.1.2.3.0 bus2=80505165271638.1.2.3.0 r1=0.975 x1=0.47 length=0.040339 units=km normamps=152.0
new line.52884746 phases=3 bus1=80513375271648.1.2.3.0 bus2=80513335271648.1.2.3.0 r1=0.613 x1=0.45 length=0.025747 units=km normamps=203.0
new line.52884752 phases=3 bus1=80513435271648.1.2.3.0 bus2=80513385271648.1.2.3.0 r1=0.613 x1=0.45 length=0.028485 units=km normamps=203.0
new line.52884761 phases=3 bus1=80513595271649.1.2.3.0 bus2=80513615271649.1.2.3.0 r1=0.613 x1=0.45 length=0.030948 units=km normamps=203.0
new line.52884766 phases=3 bus1=80513625271649.1.2.3.0 bus2=80513665271649.1.2.3.0 r1=0.975 x1=0.47 length=0.030762 units=km normamps=152.0
new line.52884769 phases=3 bus1=80513695271649.1.2.3.0 bus2=80513685271649.1.2.3.0 r1=0.975 x1=0.47 length=0.011656 units=km normamps=152.0
new line.52884910 phases=3 bus1=80513415271648.1.2.3.0 bus2=80513445271648.1.2.3.0 r1=0.975 x1=0.47 length=0.028519 units=km normamps=152.0
new line.52884915 phases=3 bus1=80513375271648.1.2.3.0 bus2=80513495271648.1.2.3.0 r1=0.975 x1=0.47 length=0.019103 units=km normamps=152.0
new line.52885060 phases=3 bus1=80512435271657.1.2.3.0 bus2=94400665271657.1.2.3.0 r1=0.991 x1=0.1 length=0.00485 units=km normamps=100.0
new line.52885063 phases=3 bus1=80511035271657.1.2.3.0 bus2=80511025271657.1.2.3.0 r1=0.975 x1=0.47 length=0.031964 units=km normamps=152.0
new line.52885233 phases=3 bus1=80519635271672.1.2.3.0 bus2=80519785271672.1.2.3.0 r1=0.975 x1=0.47 length=0.029802 units=km normamps=152.0
new line.52885237 phases=3 bus1=80520025271673.1.2.3.0 bus2=80520045271673.1.2.3.0 r1=0.975 x1=0.47 length=0.02053 units=km normamps=152.0
new line.52885244 phases=3 bus1=80519595271673.1.2.3.0 bus2=80519585271673.1.2.3.0 r1=0.975 x1=0.47 length=0.031962 units=km normamps=152.0
new line.52885247 phases=3 bus1=80519605271673.1.2.3.0 bus2=80520095271673.1.2.3.0 r1=0.613 x1=0.45 length=0.029041 units=km normamps=203.0
new line.52885253 phases=3 bus1=80502155271674.1.2.3.0 bus2=80502645271674.1.2.3.0 r1=0.975 x1=0.47 length=0.028522 units=km normamps=152.0
new line.52885264 phases=3 bus1=80502805271674.1.2.3.0 bus2=80502795271674.1.2.3.0 r1=0.975 x1=0.47 length=0.013095 units=km normamps=152.0
new line.52885279 phases=3 bus1=80519265271674.1.2.3.0 bus2=80502155271674.1.2.3.0 r1=0.975 x1=0.47 length=0.012313 units=km normamps=152.0
new line.52885282 phases=3 bus1=80502855271674.1.2.3.0 bus2=80502185271674.1.2.3.0 r1=0.975 x1=0.47 length=0.031284 units=km normamps=152.0
new line.52885290 phases=3 bus1=80502945271674.1.2.3.0 bus2=80502925271674.1.2.3.0 r1=0.975 x1=0.47 length=0.022704 units=km normamps=152.0
new line.52885293 phases=3 bus1=80502965271674.1.2.3.0 bus2=80502955271674.1.2.3.0 r1=0.975 x1=0.47 length=0.029074 units=km normamps=152.0
new line.52885295 phases=3 bus1=80502175271674.1.2.3.0 bus2=80519285271674.1.2.3.0 r1=0.506 x1=0.1 length=0.02753 units=km normamps=157.0
new line.52885510 phases=3 bus1=80502505271682.1.2.3.0 bus2=80502495271682.1.2.3.0 r1=0.975 x1=0.47 length=0.01244 units=km normamps=152.0
new line.52885514 phases=3 bus1=80502535271682.1.2.3.0 bus2=80502545271682.1.2.3.0 r1=0.975 x1=0.47 length=0.030506 units=km normamps=152.0
new line.52885518 phases=3 bus1=80502575271682.1.2.3.0 bus2=80502195271682.1.2.3.0 r1=0.975 x1=0.47 length=0.024068 units=km normamps=152.0
new line.52885526 phases=3 bus1=80515995305630.1.2.3.0 bus2=80515985305630.1.2.3.0 r1=0.975 x1=0.47 length=0.018799 units=km normamps=152.0
new line.52885530 phases=3 bus1=80516025305630.1.2.3.0 bus2=80515995305630.1.2.3.0 r1=0.975 x1=0.47 length=0.03274 units=km normamps=152.0
new line.52885538 phases=3 bus1=80516655271683.1.2.3.0 bus2=80516665271683.1.2.3.0 r1=0.975 x1=0.47 length=0.03076 units=km normamps=152.0
new line.52885551 phases=3 bus1=80516075271683.1.2.3.0 bus2=80518995271683.1.2.3.0 r1=0.975 x1=0.47 length=0.019536 units=km normamps=152.0
new line.52885567 phases=3 bus1=80519195271683.1.2.3.0 bus2=80520105271683.1.2.3.0 r1=0.613 x1=0.45 length=0.023928 units=km normamps=203.0
new line.52885569 phases=1 bus1=80519105305630.1.0 bus2=80519115305630.1.0 r1=0.975 x1=0.47 length=0.045178 units=km normamps=152.0
new line.52885586 phases=3 bus1=80502395271682.1.2.3.0 bus2=80502415271682.1.2.3.0 r1=0.975 x1=0.47 length=0.029489 units=km normamps=152.0
new line.52885598 phases=3 bus1=80502525271682.1.2.3.0 bus2=80503045271682.1.2.3.0 r1=0.975 x1=0.47 length=0.021551 units=km normamps=152.0
new line.52885599 phases=3 bus1=80519325271682.1.2.3.0 bus2=80519315271682.1.2.3.0 r1=0.613 x1=0.45 length=0.022079 units=km normamps=203.0
new line.52885606 phases=1 bus1=80519085305630.1.0 bus2=80519095305630.1.0 r1=0.975 x1=0.47 length=0.04416 units=km normamps=152.0
new line.52885623 phases=1 bus1=80513825271684.1.0 bus2=80513815271684.1.0 r1=0.975 x1=0.47 length=0.035632 units=km normamps=152.0
new line.52885632 phases=3 bus1=80518985271684.1.2.3.0 bus2=80518975271684.1.2.3.0 r1=0.975 x1=0.47 length=0.025561 units=km normamps=152.0
new line.52885635 phases=3 bus1=80516175271684.1.2.3.0 bus2=80518985271684.1.2.3.0 r1=0.975 x1=0.47 length=0.027685 units=km normamps=152.0
new line.52885638 phases=3 bus1=80516165271684.1.2.3.0 bus2=80516175271684.1.2.3.0 r1=0.975 x1=0.47 length=0.017141 units=km normamps=152.0
new line.53738264 phases=3 bus1=80505755271631.1.2.3.0 bus2=83085245271631.1.2.3.0 r1=0.506 x1=0.1 length=0.033165 units=km normamps=157.0
new line.53767350 phases=3 bus1=83294075271684.1.2.3.0 bus2=83294085271684.1.2.3.0 r1=0.991 x1=0.1 length=0.027474 units=km normamps=100.0
new line.53767416 phases=3 bus1=80520355686695.1.2.3.0 bus2=80520345686695.1.2.3.0 r1=0.991 x1=0.1 length=0.053114 units=km normamps=100.0
new line.53767418 phases=3 bus1=80519885686695.1.2.3.0 bus2=80519875686695.1.2.3.0 r1=0.991 x1=0.1 length=0.039065 units=km normamps=100.0
new line.53767421 phases=3 bus1=80519945271684.1.2.3.0 bus2=80516185271684.1.2.3.0 r1=0.975 x1=0.47 length=0.052062 units=km normamps=152.0
new line.53767445 phases=3 bus1=83295255271684.1.2.3.0 bus2=83295285271684.1.2.3.0 r1=0.991 x1=0.1 length=0.042326 units=km normamps=100.0
new line.53869983 phases=3 bus1=82320675318117.1.2.3.0 bus2=84141005318117.1.2.3.0 r1=0.991 x1=0.1 length=0.028508 units=km normamps=100.0
new line.53869990 phases=3 bus1=84141005318117.1.2.3.0 bus2=84141095318117.1.2.3.0 r1=0.991 x1=0.1 length=0.045191 units=km normamps=100.0
new line.53869993 phases=3 bus1=84141065318117.1.2.3.0 bus2=84141055318117.1.2.3.0 r1=0.991 x1=0.1 length=0.031048 units=km normamps=100.0
new line.53870112 phases=3 bus1=84142435318117.1.2.3.0 bus2=84142445318117.1.2.3.0 r1=0.991 x1=0.1 length=0.032346 units=km normamps=100.0
new line.53870140 phases=3 bus1=84142795318117.1.2.3.0 bus2=84142805318117.1.2.3.0 r1=0.991 x1=0.1 length=0.045018 units=km normamps=100.0
new line.53870141 phases=3 bus1=84142805318117.1.2.3.0 bus2=84142815318117.1.2.3.0 r1=0.991 x1=0.1 length=0.044942 units=km normamps=100.0
new line.53870143 phases=3 bus1=84142815318117.1.2.3.0 bus2=84142735318117.1.2.3.0 r1=0.991 x1=0.1 length=0.043948 units=km normamps=100.0
new line.53870157 phases=3 bus1=84142995318117.1.2.3.0 bus2=93165135318117.1.2.3.0 r1=0.991 x1=0.1 length=0.028579 units=km normamps=100.0
new line.53870162 phases=3 bus1=84143105318117.1.2.3.0 bus2=84143135318117.1.2.3.0 r1=0.991 x1=0.1 length=0.028129 units=km normamps=100.0
new line.53870164 phases=3 bus1=84143135318117.1.2.3.0 bus2=84143115318117.1.2.3.0 r1=0.991 x1=0.1 length=0.036758 units=km normamps=100.0
new line.53870204 phases=3 bus1=84143445318117.1.2.3.0 bus2=84143375318117.1.2.3.0 r1=0.991 x1=0.1 length=0.016298 units=km normamps=100.0
new line.53884558 phases=3 bus1=84262765320042.1.2.0 bus2=84262865320042.1.2.0 r1=0.975 x1=0.47 length=0.040809 units=km normamps=152.0
new line.54218301 phases=3 bus1=86998225271626.1.2.3.0 bus2=80507645271626.1.2.3.0 r1=0.613 x1=0.45 length=0.020967 units=km normamps=203.0
new line.54511747 phases=1 bus1=80506745271634-284.1.0 bus2=89207075271634-284.1.0 r1=0.975 x1=0.47 length=0.019618 units=km normamps=152.0
new line.55136757 phases=3 bus1=94079975686695.1.2.3.0 bus2=83295015686695.1.2.3.0 r1=0.991 x1=0.1 length=0.010093 units=km normamps=100.0
new line.55169472 phases=3 bus1=94333825271631.1.2.3.0 bus2=80519255271631.1.2.3.0 r1=0.991 x1=0.1 length=0.00414 units=km normamps=100.0
new line.55225927 phases=3 bus1=94730785271674.1.2.3.0 bus2=94730895271674.1.2.3.0 r1=0.506 x1=0.1 length=0.007781 units=km normamps=157.0
new line.55320220 phases=3 bus1=80502285271636.1.2.3.0 bus2=95526785271636.1.2.3.0 r1=0.991 x1=0.1 length=0.004905 units=km normamps=100.0
new line.55320222 phases=3 bus1=87539995271636.1.2.3.0 bus2=95526805271636.1.2.3.0 r1=0.991 x1=0.1 length=0.031229 units=km normamps=100.0
new line.55479993 phases=1 bus1=96807805754725.1 bus2=96807745754725.1 r1=0.975 x1=0.47 length=0.038573 units=km normamps=152.0
new line.55480010 phases=3 bus1=96807365754724-1256.1.2.3.0 bus2=96807345754724-1256.1.2.3.0 r1=0.975 x1=0.47 length=0.039584 units=km normamps=152.0
new line.55480015 phases=3 bus1=96806525754724-1256.1.2.3.0 bus2=96806505754724-1256.1.2.3.0 r1=0.975 x1=0.47 length=0.041661 units=km normamps=152.0
new line.55480021 phases=3 bus1=96806255271629-283.1.2.3.0 bus2=96806065271629-283.1.2.3.0 r1=0.975 x1=0.47 length=0.041642 units=km normamps=152.0
new line.55480024 phases=3 bus1=96805935271629-283.1.2.3.0 bus2=96805905271629-283.1.2.3.0 r1=0.975 x1=0.47 length=0.040899 units=km normamps=152.0
new line.55480027 phases=3 bus1=96805865271629-283.1.2.3.0 bus2=96805705271629-283.1.2.3.0 r1=0.975 x1=0.47 length=0.036859 units=km normamps=152.0
new line.55480028 phases=3 bus1=96805705271629-283.1.2.3.0 bus2=96805555271629-283.1.2.3.0 r1=0.975 x1=0.47 length=0.036745 units=km normamps=152.0
new line.55480030 phases=3 bus1=96804465271629-283.1.2.3.0 bus2=96804475271629-283.1.2.3.0 r1=0.975 x1=0.47 length=0.041359 units=km normamps=152.0
new line.55480033 phases=3 bus1=96804515754715-1254.1.2.3.0 bus2=96804525754715-1254.1.2.3.0 r1=0.975 x1=0.47 length=0.039934 units=km normamps=152.0
new line.55634795 phases=3 bus1=97810225271683.1.2.3.0 bus2=80516675271683.1.2.3.0 r1=0.975 x1=0.47 length=0.034226 units=km normamps=152.0
new line.55639005 phases=3 bus1=97834785271628.1.2.3.0 bus2=80506565271628.1.2.3.0 r1=0.991 x1=0.1 length=0.013106 units=km normamps=100.0
new line.55725313 phases=3 bus1=98435545271628.1.2.3.0 bus2=98435535271628.1.2.3.0 r1=0.991 x1=0.1 length=0.036151 units=km normamps=100.0
new line.55811733 phases=3 bus1=99224425807907.1.2.3.0 bus2=99223915807907.1.2.3.0 r1=0.506 x1=0.1 length=0.038062 units=km normamps=157.0
new line.55811741 phases=3 bus1=99223995807906.1.2.3.0 bus2=99224005807906.1.2.3.0 r1=0.991 x1=0.1 length=0.033989 units=km normamps=100.0
new line.55811751 phases=3 bus1=99224195807906.1.2.3.0 bus2=99224205807906.1.2.3.0 r1=0.991 x1=0.1 length=0.023958 units=km normamps=100.0
new line.55811753 phases=3 bus1=99224215807906.1.2.3.0 bus2=99224225807906.1.2.3.0 r1=0.991 x1=0.1 length=0.03318 units=km normamps=100.0
new line.55811760 phases=3 bus1=99224285807911.1.2.3.0 bus2=99224295807911.1.2.3.0 r1=0.506 x1=0.1 length=0.031052 units=km normamps=157.0
new line.55811773 phases=3 bus1=99224065807906.1.2.3.0 bus2=99224075807906.1.2.3.0 r1=0.506 x1=0.1 length=0.009646 units=km normamps=157.0
new line.55811783 phases=3 bus1=99224405807907.1.2.3.0 bus2=99224415807907.1.2.3.0 r1=0.506 x1=0.1 length=0.039772 units=km normamps=157.0
new line.55817050 phases=3 bus1=99223975807906.1.2.3.0 bus2=99223965807906.1.2.3.0 r1=0.991 x1=0.1 length=0.040282 units=km normamps=100.0
new line.55856961 phases=3 bus1=80398675271624.1.2.3.0 bus2=99526225271624.1.2.3.0 r1=0.991 x1=0.1 length=0.012699 units=km normamps=100.0
new line.55856970 phases=3 bus1=80507795271626.1.2.3.0 bus2=99526235271626.1.2.3.0 r1=0.991 x1=0.1 length=0.032407 units=km normamps=100.0
new line.55856975 phases=3 bus1=99526255271626.1.2.3.0 bus2=99526265271626.1.2.3.0 r1=0.991 x1=0.1 length=0.036151 units=km normamps=100.0
new line.55857001 phases=3 bus1=99526345271624.1.2.3.0 bus2=99526425271624.1.2.3.0 r1=0.991 x1=0.1 length=0.031259 units=km normamps=100.0
new line.52868370 phases=3 bus1=80398835320042.1.2.3.0 bus2=80398845320042.1.2.3.0 r1=0.975 x1=0.47 length=0.048274 units=km normamps=152.0
new line.52883879 phases=3 bus1=80504425271619.1.2.3.0 bus2=80504245271619.1.2.3.0 r1=0.975 x1=0.47 length=0.027507 units=km normamps=152.0
new line.52883882 phases=3 bus1=80504455271619.1.2.3.0 bus2=80504445271619.1.2.3.0 r1=0.613 x1=0.45 length=0.035141 units=km normamps=203.0
new line.52883884 phases=3 bus1=80504475271619.1.2.3.0 bus2=80504465271619.1.2.3.0 r1=0.613 x1=0.45 length=0.024617 units=km normamps=203.0
new line.52883886 phases=3 bus1=80505205271619.1.2.3.0 bus2=80505215271619.1.2.3.0 r1=0.975 x1=0.47 length=0.024843 units=km normamps=152.0
new line.52883888 phases=3 bus1=80504315271619.1.2.3.0 bus2=80505265271619.1.2.3.0 r1=0.975 x1=0.47 length=0.022089 units=km normamps=152.0
new line.52883889 phases=3 bus1=80505275271619.1.2.3.0 bus2=80505265271619.1.2.3.0 r1=0.975 x1=0.47 length=0.010219 units=km normamps=152.0
new line.52883896 phases=3 bus1=80506645271628.1.2.3.0 bus2=80506655271628.1.2.3.0 r1=0.975 x1=0.47 length=0.038655 units=km normamps=152.0
new line.52883901 phases=3 bus1=80505355271628.1.2.3.0 bus2=80505365271628.1.2.3.0 r1=0.975 x1=0.47 length=0.016771 units=km normamps=152.0
new line.52883904 phases=3 bus1=80506915271629-283.1.2.3.0 bus2=80506925271629-283.1.2.3.0 r1=0.975 x1=0.47 length=0.040714 units=km normamps=152.0
new line.52883908 phases=3 bus1=80506215271630.1.2.3.0 bus2=80506225271630.1.2.3.0 r1=0.613 x1=0.45 length=0.033885 units=km normamps=203.0
new line.52883910 phases=3 bus1=80506475271630.1.2.3.0 bus2=80506455271630.1.2.3.0 r1=0.975 x1=0.47 length=0.018426 units=km normamps=152.0
new line.52883913 phases=3 bus1=80506485271630.1.2.3.0 bus2=80506475271630.1.2.3.0 r1=0.975 x1=0.47 length=0.024732 units=km normamps=152.0
new line.52883917 phases=3 bus1=80506665271630.1.2.3.0 bus2=80505385271630.1.2.3.0 r1=0.613 x1=0.45 length=0.030695 units=km normamps=203.0
new line.52883922 phases=3 bus1=80505775271631.1.2.3.0 bus2=80505785271631.1.2.3.0 r1=0.506 x1=0.1 length=0.039192 units=km normamps=157.0
new line.52883927 phases=3 bus1=80505705271631.1.2.3.0 bus2=80505695271631.1.2.3.0 r1=0.991 x1=0.1 length=0.040285 units=km normamps=100.0
new line.52883931 phases=3 bus1=80505795271631.1.2.3.0 bus2=80502145271631.1.2.3.0 r1=0.991 x1=0.1 length=0.019326 units=km normamps=100.0
new line.52883942 phases=3 bus1=80502055271631.1.2.3.0 bus2=80519045271631.1.2.3.0 r1=0.991 x1=0.1 length=0.037035 units=km normamps=100.0
new line.52883946 phases=3 bus1=80502105271631.1.2.3.0 bus2=80519055271631.1.2.3.0 r1=0.991 x1=0.1 length=0.011821 units=km normamps=100.0
new line.52883955 phases=3 bus1=80504235271632.1.2.3.0 bus2=80504225271632.1.2.3.0 r1=0.975 x1=0.47 length=0.031161 units=km normamps=152.0
new line.52883960 phases=3 bus1=80507895271632.1.2.3.0 bus2=80507885271632.1.2.3.0 r1=0.975 x1=0.47 length=0.042745 units=km normamps=152.0
...

! 7. Cargas Consumidoras de Baixa Tensao (BT)
new load.UCBT_f73ee61e53a03d4d41afc4da807b58d3d29edefc12fffc278ed64465be43669b phases=1 model=1 bus=80505385271630.1.0 kv=0.22 conn=wye kw=9.0 daily=COM-Tipo1 vminpu=0.85
new load.UCBT_a97c242abbc9728e0d65dfe2f4fa66b4c430e3de19124fba8da0cd1c1c80c591 phases=1 model=1 bus=80503455271635.1.0 kv=0.22 conn=wye kw=8.0 daily=RES-Tipo4 vminpu=0.85
new load.UCBT_c57397cdccf98fd4b31e8c6ccbd16835eb935f7752de9176aaf1c46fd460543e phases=1 model=1 bus=80506385271633.1.0 kv=0.22 conn=wye kw=8.0 daily=RES-Tipo5 vminpu=0.85
new load.UCBT_edc6f16e16e771b106b0ba11f9b1d9abb4f643f1746d06cd58af46e482761424 phases=3 model=1 bus=88596615523228.1.2.3.0 kv=0.38 conn=wye kw=37.0 daily=RES-Tipo1 vminpu=0.85
new load.UCBT_d3b6597f573598f091e49c4f963b9a62dd9d2eac9ef13b4d4d7c535d6253f3d0 phases=1 model=1 bus=80505525271641-285.2.0 kv=0.22 conn=wye kw=8.0 daily=RES-Tipo4 vminpu=0.85
new load.UCBT_4c28ba61e175624072b102de6a973254b944856804ac2db4e6c4a01ab096ab21 phases=3 model=1 bus=80507915271632.1.2.3.0 kv=0.38 conn=wye kw=37.0 daily=RES-Tipo6 vminpu=0.85
new load.UCBT_602c62f34a7ed71911ab33afc6255ca7d59f5c1f57a2b9c8364d7cf2a72861be phases=2 model=1 bus=86977025445876.2.3.0 kv=0.38 conn=wye kw=16.0 daily=RES-Tipo5 vminpu=0.85
new load.UCBT_ec94eebf75f5fe8ff2640b42a5e8e370d1ef3143c993961d0efadb0afcfc058d phases=2 model=1 bus=87647075468038.1.2.0 kv=0.38 conn=wye kw=12.0 daily=RES-Tipo1 vminpu=0.85
new load.UCBT_9badc6746ae73c80a58e32f3d8bcb3a4fa54b5f26d5e5ec13b01a924e69a3a60 phases=3 model=1 bus=94233725620954.1.2.3.0 kv=0.38 conn=wye kw=19.0 daily=RES-Tipo5 vminpu=0.85
new load.UCBT_e175ced36d178395b65ab404202d3e6d0e1ca72431a7cd9a470e7022d16c253e phases=3 model=1 bus=80505755271631.1.2.3.0 kv=0.38 conn=wye kw=37.0 daily=RES-Tipo8 vminpu=0.85
new load.UCBT_b708f6ba0a65519bf2792a873968749ce14ca1eaab0ee97b700c1ea80b1211c8 phases=3 model=1 bus=80502455271682.1.2.3.0 kv=0.38 conn=wye kw=37.0 daily=RES-Tipo1 vminpu=0.85
new load.UCBT_61588ae41ac388788cc2773c596d053d46582dcbcc9ed2658e77b1752f22f615 phases=3 model=1 bus=96831355756020.1.2.3.0 kv=0.38 conn=wye kw=37.0 daily=RES-Tipo5 vminpu=0.85
new load.UCBT_403e0baf787dce9180e7a9c098f4a79097eed0caadfb5949b8dfd6503092a093 phases=3 model=1 bus=80506865271629-283.1.2.3.0 kv=0.38 conn=wye kw=37.0 daily=RES-Tipo3 vminpu=0.85
new load.UCBT_f8ae53b9135f7945092d90cbf28ec8c5c7639e21f1c48dfa799e5a9302359c7e phases=3 model=1 bus=96877005754726.1.2.3.0 kv=0.38 conn=wye kw=37.0 daily=RES-Tipo6 vminpu=0.85
new load.UCBT_b6d320ec35feb1ede528caf44af1e331b750775918bc4225cbe49942bed1de67 phases=1 model=1 bus=80503075271634-284.2.0 kv=0.22 conn=wye kw=8.0 daily=RES-Tipo5 vminpu=0.85
new load.UCBT_1eff363de28ee92f8f2ab4ad15318d6203898414cbd7841d1832d315c08bf621 phases=3 model=1 bus=93916215673930.1.2.3.0 kv=0.38 conn=wye kw=37.0 daily=COM-Tipo3 vminpu=0.85
new load.UCBT_52fe44ee7b4770b0951877f9e63150a5839b0cd5d988cc6ed54243b19333e22e phases=2 model=1 bus=88737635506552.1.2.0 kv=0.38 conn=wye kw=9.0 daily=RES-Tipo4 vminpu=0.85
new load.UCBT_60042e2f6ffd8e2a9ff1506e0d804ce07ef6d15555ea954bde0d174c5f980f94 phases=2 model=1 bus=88737635506552.1.2.0 kv=0.38 conn=wye kw=16.0 daily=RES-Tipo4 vminpu=0.85
new load.UCBT_14c396b24fda48423c47e45b94a1a8987d7e225fcef961c10399fe17cc23fbc5 phases=3 model=1 bus=80506575271628.1.2.3.0 kv=0.38 conn=wye kw=37.0 daily=RES-Tipo7 vminpu=0.85
new load.UCBT_7a06f98ffa96d32025f398d7743df6d31570e49481c5def2ff8e06b71bc9c074 phases=1 model=1 bus=80506575271628.2.0 kv=0.22 conn=wye kw=8.0 daily=COM-Tipo8 vminpu=0.85
new load.UCBT_a98c1fcf06ed7021256b255d2ab98ac54e9e173383cc3d3e404e9aa797c33d5a phases=1 model=1 bus=80505165271638.2.0 kv=0.22 conn=wye kw=8.0 daily=RES-Tipo1 vminpu=0.85
new load.UCBT_6d9e0c20f44878b175106f111a8399818a2168984d6b58b01b1b7f7feadd05a9 phases=2 model=1 bus=80398825320042.1.2.0 kv=0.38 conn=wye kw=16.0 daily=RES-Tipo1 vminpu=0.85
new load.UCBT_95b041eeddca3eeb58eef71cbde732aa3373b89bd0322a032b7d9d5d358a6dd3 phases=1 model=1 bus=80507585271625.3.0 kv=0.22 conn=wye kw=8.0 daily=RES-Tipo2 vminpu=0.85
new load.UCBT_68cd826f0e1107840a01f15804a5970fedac76917b9b24ec91d684fcf557ad14 phases=1 model=1 bus=80501605271616.2.0 kv=0.22 conn=wye kw=9.0 daily=RES-Tipo2 vminpu=0.85
new load.UCBT_95f9b7906e1daeb9c6a33ba70a842c5bfd31569566d4d8ab160e7e0492da5cf3 phases=1 model=1 bus=80506345271632.3.0 kv=0.22 conn=wye kw=8.0 daily=RES-Tipo1 vminpu=0.85
new load.UCBT_61d051b7bc0dab1223193bace42cb7c1eb66a5cd995bfa871d0adfa3ebd29a74 phases=2 model=1 bus=88737625506553.3.1.0 kv=0.38 conn=wye kw=16.0 daily=RES-Tipo2 vminpu=0.85
new load.UCBT_e92d6dfd841838e5528407e24f6bf4237a6e8e20c55bd5d1e9878f080b40d386 phases=1 model=1 bus=80506345271632.3.0 kv=0.22 conn=wye kw=8.0 daily=RES-Tipo1 vminpu=0.85
new load.UCBT_2d525833b6c9dab332a614d94452c83564612332d894c52beb58fba90bcd1dea phases=1 model=1 bus=80504785271623.1.0 kv=0.22 conn=wye kw=8.0 daily=RES-Tipo1 vminpu=0.85
new load.UCBT_27fb1b4843e33e0dd63b82344a88add5ffca1f7d465a292df8b2541101ea020a phases=2 model=1 bus=88737625506553.2.3.0 kv=0.38 conn=wye kw=13.0 daily=RES-Tipo2 vminpu=0.85
new load.UCBT_80ce5d43c4eadfab8c54e9ddddddb5b44e23bc91207b229c63cea57591ba713f phases=1 model=1 bus=80507575271625.2.0 kv=0.22 conn=wye kw=8.0 daily=RES-Tipo7 vminpu=0.85
new load.UCBT_55da90070da62d514aeaef4f0af3f38231e3defe9f01267d8d59605925b69268 phases=3 model=1 bus=96828335755762-1264.1.2.3.0 kv=0.38 conn=wye kw=37.0 daily=RES-Tipo1 vminpu=0.85
new load.UCBT_5892e8cafbacc16844510754ac1c56c2e6d06327b4ceb1359438ce8e07a13417 phases=1 model=1 bus=80506565271628.1.0 kv=0.22 conn=wye kw=9.0 daily=RES-Tipo2 vminpu=0.85
new load.UCBT_4fbcf0a6e31e6bd5516736f25ce9aef04b9ce44690be5c3e903953e117e4d77b phases=3 model=1 bus=88596575502053.1.2.3.0 kv=0.38 conn=wye kw=19.0 daily=RES-Tipo4 vminpu=0.85
new load.UCBT_5be804f3635ded7376545c7716effa0f6a25e3dce4708b6f96a2f6b9467dc859 phases=1 model=1 bus=80506575271628.1.0 kv=0.22 conn=wye kw=8.0 daily=RES-Tipo3 vminpu=0.85
new load.UCBT_521e612526768737d72c28e66a7ec0060fa943193909dbab613f4b7856a5f3d2 phases=3 model=1 bus=80516105271683.1.2.3.0 kv=0.38 conn=wye kw=37.0 daily=RES-Tipo4 vminpu=0.85
new load.UCBT_9b6a4e7c5445bd8544e014ad0d50c7976839a9af7b7794aeca46ec17ef714703 phases=1 model=1 bus=80507355271624.3.0 kv=0.22 conn=wye kw=8.0 daily=RES-Tipo8 vminpu=0.85
new load.UCBT_8c73b2774dd84c836fc192011cf643148790ac6e4508ae423e87d945c005636f phases=3 model=1 bus=89248545522588.1.2.3.0 kv=0.38 conn=wye kw=37.0 daily=RES-Tipo6 vminpu=0.85
new load.UCBT_3233191a1377e1b325bc564e55f4821270f7f78e1777fa7d5b47d33c5b532b36 phases=1 model=1 bus=80507315271624.1.0 kv=0.22 conn=wye kw=8.0 daily=RES-Tipo8 vminpu=0.85
new load.UCBT_3bc60ec4452a92c41401164fda6008a69910e29d331777349f7e5ba90e7248b9 phases=3 model=1 bus=94233725620954.1.2.3.0 kv=0.38 conn=wye kw=37.0 daily=RES-Tipo8 vminpu=0.85
new load.UCBT_c55ebec104cee3b45451da0092eb7ae08fc9cafd8883a94f1349c73339bb4b5e phases=1 model=1 bus=80516605305630.2.0 kv=0.22 conn=wye kw=8.0 daily=RES-Tipo1 vminpu=0.85
new load.UCBT_071c0cd9259378572d59fd3779f866b02e6b158ba018d0455542f98465b47752 phases=3 model=1 bus=96805505754717-1255.1.2.3.0 kv=0.38 conn=wye kw=50.0 daily=RES-Tipo1 vminpu=0.85
new load.UCBT_3d49b8ef202f89315b33d945a92971958c450208ab3e9808b677ecd662a7fc0e phases=2 model=1 bus=88737625506553.2.3.0 kv=0.38 conn=wye kw=9.0 daily=RES-Tipo3 vminpu=0.85
new load.UCBT_94df0e276fcb671c52f38826afdeb2cb583b2a65e8e2027d00af1ae7ab2d80a8 phases=2 model=1 bus=88737635506552.3.1.0 kv=0.38 conn=wye kw=9.0 daily=RES-Tipo3 vminpu=0.85
new load.UCBT_932bc9b00a52be5f750db0ad246728c77d30ef9adcab06f1ca9bbe57a1f0c4a5 phases=1 model=1 bus=80507785271626.2.0 kv=0.22 conn=wye kw=8.0 daily=RES-Tipo3 vminpu=0.85
new load.UCBT_30daeb641f6145295b6d5ad29b5cfc8202430eedc230395ac0406965ed531b11 phases=3 model=1 bus=80506155271637.1.2.3.0 kv=0.38 conn=wye kw=37.0 daily=RES-Tipo2 vminpu=0.85
new load.UCBT_1a4cc133278526241df37eaa9f263ea58b50954f8738ddfd2244f44d5b98b286 phases=1 model=1 bus=80506365271632.1.0 kv=0.22 conn=wye kw=8.0 daily=RES-Tipo1 vminpu=0.85
...